!-Generator IDFEditor 1.50
!-Option SortedOrder

!-NOTE: All comments with '!-' are ignored by the IDFEditor and are generated automatically.
!-      Use '!' comments if they need to be retained when using the IDFEditor.


!-   ===========  ALL OBJECTS IN CLASS: VERSION ===========

Version,
    8.9;                     !- Version Identifier


!-   ===========  ALL OBJECTS IN CLASS: SIMULATIONCONTROL ===========

SimulationControl,
    No,                      !- Do Zone Sizing Calculation
    No,                      !- Do System Sizing Calculation
    No,                      !- Do Plant Sizing Calculation
    No,                      !- Run Simulation for Sizing Periods
    Yes,                     !- Run Simulation for Weather File Run Periods
    No;                      !- Do HVAC Sizing Simulation for Sizing Periods


!-   ===========  ALL OBJECTS IN CLASS: TIMESTEP ===========

Timestep,
    6;                       !- Number of Timesteps per Hour


!-   ===========  ALL OBJECTS IN CLASS: SIZINGPERIOD:WEATHERFILEDAYS ===========

SizingPeriod:WeatherFileDays,
    SizingPeriod,            !- Name
    1,                       !- Begin Month
    1,                       !- Begin Day of Month
    12,                      !- End Month
    31,                      !- End Day of Month
    Monday,                  !- Day of Week for Start Day
    No,                      !- Use Weather File Daylight Saving Period
    No;                      !- Use Weather File Rain and Snow Indicators


!-   ===========  ALL OBJECTS IN CLASS: RUNPERIOD ===========

RunPeriod,
    Ano,                     !- Name
    1,                       !- Begin Month
    1,                       !- Begin Day of Month
    12,                      !- End Month
    31,                      !- End Day of Month
    UseWeatherFile,          !- Day of Week for Start Day
    Yes,                     !- Use Weather File Holidays and Special Days
    No,                      !- Use Weather File Daylight Saving Period
    No,                      !- Apply Weekend Holiday Rule
    No,                      !- Use Weather File Rain Indicators
    No,                      !- Use Weather File Snow Indicators
    1;                       !- Number of Times Runperiod to be Repeated


!-   ===========  ALL OBJECTS IN CLASS: SITE:GROUNDTEMPERATURE:BUILDINGSURFACE ===========

Site:GroundTemperature:BuildingSurface,
    0.0,                     !- January Ground Temperature {C}
    0.0,                     !- February Ground Temperature {C}
    0.0,                     !- March Ground Temperature {C}
    0.0,                     !- April Ground Temperature {C}
    0.0,                     !- May Ground Temperature {C}
    0.0,                     !- June Ground Temperature {C}
    0.0,                     !- July Ground Temperature {C}
    0.0,                     !- August Ground Temperature {C}
    0.0,                     !- September Ground Temperature {C}
    0.0,                     !- October Ground Temperature {C}
    0.0,                     !- November Ground Temperature {C}
    0.0;                     !- December Ground Temperature {C}


!-   ===========  ALL OBJECTS IN CLASS: SCHEDULETYPELIMITS ===========

ScheduleTypeLimits,
    fraction,                !- Name
    0.0,                     !- Lower Limit Value
    1.0,                     !- Upper Limit Value
    Continuous;              !- Numeric Type

ScheduleTypeLimits,
    Any Number,              !- Name
    -100.0,                  !- Lower Limit Value
    1000.0,                  !- Upper Limit Value
    Continuous;              !- Numeric Type

ScheduleTypeLimits,
    TEMPERATURE,             !- Name
    0.0,                     !- Lower Limit Value
    50.0,                    !- Upper Limit Value
    Continuous,              !- Numeric Type
    Temperature;             !- Unit Type

ScheduleTypeLimits,
    On/Off,                  !- Name
    0.0,                     !- Lower Limit Value
    1.0,                     !- Upper Limit Value
    Discrete,                !- Numeric Type
    Control;                 !- Unit Type

ScheduleTypeLimits,
    fracao,                  !- Name
    0.0,                     !- Lower Limit Value
    1.0,                     !- Upper Limit Value
    Continuous,              !- Numeric Type
    Percent;                 !- Unit Type

ScheduleTypeLimits,
    atividade,               !- Name
    0.0,                     !- Lower Limit Value
    1000.0,                  !- Upper Limit Value
    Continuous,              !- Numeric Type
    ActivityLevel;           !- Unit Type

ScheduleTypeLimits,
    control,                 !- Name
    0.0,                     !- Lower Limit Value
    4.0,                     !- Upper Limit Value
    Discrete;                !- Numeric Type


!-   ===========  ALL OBJECTS IN CLASS: SCHEDULE:COMPACT ===========

Schedule:Compact,
    Surroundings_visual_transmittance,  !- Name
    On/Off,                  !- Schedule Type Limits Name
    Through: 12/31,          !- Field 1
    For: AllDays,            !- Field 2
    Until: 24:00,            !- Field 3
    1;                       !- Field 4

Schedule:Compact,
    SCH_08H,                 !- Name
    Fraction,                !- Schedule Type Limits Name
    Through: 12/31,          !- Field 1
    For: Weekdays SummerDesignDay,  !- Field 2
    Until: 8:00,             !- Field 3
    0.0,                     !- Field 4
    Until: 12:00,            !- Field 5
    1,                       !- Field 6
    Until: 13:00,            !- Field 7
    .2,                      !- Field 8
    Until: 17:00,            !- Field 9
    1,                       !- Field 10
    Until: 24:00,            !- Field 11
    0.0,                     !- Field 12
    For: Saturday WinterDesignDay,  !- Field 13
    Until: 9:00,             !- Field 14
    0.0,                     !- Field 15
    Until: 12:00,            !- Field 16
    0,                       !- Field 17
    Until: 24:00,            !- Field 18
    0.0,                     !- Field 19
    For: Sunday Holidays AllOtherDays,  !- Field 20
    Until: 24:00,            !- Field 21
    0.00;                    !- Field 22

Schedule:Compact,
    SCH_10H,                 !- Name
    Fraction,                !- Schedule Type Limits Name
    Through: 12/31,          !- Field 1
    For: Weekdays SummerDesignDay,  !- Field 2
    Until: 8:00,             !- Field 3
    0.0,                     !- Field 4
    Until: 12:00,            !- Field 5
    1,                       !- Field 6
    Until: 13:00,            !- Field 7
    0.5,                     !- Field 8
    Until: 18:00,            !- Field 9
    1,                       !- Field 10
    Until: 24:00,            !- Field 11
    0,                       !- Field 12
    For: Saturday WinterDesignDay,  !- Field 13
    Until: 7:00,             !- Field 14
    0.0,                     !- Field 15
    Until: 12:00,            !- Field 16
    0,                       !- Field 17
    Until: 13:00,            !- Field 18
    0,                       !- Field 19
    Until: 24:00,            !- Field 20
    0.0,                     !- Field 21
    For: Sunday Holidays AllOtherDays,  !- Field 22
    Until: 24:00,            !- Field 23
    0.00;                    !- Field 24

Schedule:Compact,
    SCH_12H,                 !- Name
    Fraction,                !- Schedule Type Limits Name
    Through: 12/31,          !- Field 1
    For: Weekdays SummerDesignDay,  !- Field 2
    Until: 7:00,             !- Field 3
    0.0,                     !- Field 4
    Until: 12:00,            !- Field 5
    1,                       !- Field 6
    Until: 13:00,            !- Field 7
    .2,                      !- Field 8
    Until: 20:00,            !- Field 9
    1,                       !- Field 10
    Until: 24:00,            !- Field 11
    0,                       !- Field 12
    For: Saturday WinterDesignDay,  !- Field 13
    Until: 7:00,             !- Field 14
    0,                       !- Field 15
    Until: 12:00,            !- Field 16
    0,                       !- Field 17
    Until: 13:00,            !- Field 18
    0,                       !- Field 19
    Until: 24:00,            !- Field 20
    0,                       !- Field 21
    For: Sunday Holidays AllOtherDays,  !- Field 22
    Until: 24:00,            !- Field 23
    0;                       !- Field 24

Schedule:Compact,
    SCH_14H,                 !- Name
    Fraction,                !- Schedule Type Limits Name
    Through: 12/31,          !- Field 1
    For: Weekdays SummerDesignDay,  !- Field 2
    Until: 7:00,             !- Field 3
    0.0,                     !- Field 4
    Until: 12:00,            !- Field 5
    1,                       !- Field 6
    Until: 13:00,            !- Field 7
    0.5,                     !- Field 8
    Until: 21:00,            !- Field 9
    1,                       !- Field 10
    Until: 24:00,            !- Field 11
    1,                       !- Field 12
    For: Saturday WinterDesignDay,  !- Field 13
    Until: 7:00,             !- Field 14
    0,                       !- Field 15
    Until: 12:00,            !- Field 16
    0,                       !- Field 17
    Until: 13:00,            !- Field 18
    0,                       !- Field 19
    Until: 24:00,            !- Field 20
    0,                       !- Field 21
    For: Sunday Holidays AllOtherDays,  !- Field 22
    Until: 24:00,            !- Field 23
    0;                       !- Field 24

Schedule:Compact,
    SCH_16H,                 !- Name
    Fraction,                !- Schedule Type Limits Name
    Through: 12/31,          !- Field 1
    For: Weekdays SummerDesignDay,  !- Field 2
    Until: 7:00,             !- Field 3
    0.0,                     !- Field 4
    Until: 12:00,            !- Field 5
    1,                       !- Field 6
    Until: 13:00,            !- Field 7
    .2,                      !- Field 8
    Until: 24:00,            !- Field 9
    1,                       !- Field 10
    For: Saturday WinterDesignDay,  !- Field 11
    Until: 7:00,             !- Field 12
    0.0,                     !- Field 13
    Until: 12:00,            !- Field 14
    0,                       !- Field 15
    Until: 13:00,            !- Field 16
    0,                       !- Field 17
    Until: 24:00,            !- Field 18
    0.0,                     !- Field 19
    For: Sunday Holidays AllOtherDays,  !- Field 20
    Until: 24:00,            !- Field 21
    0.00;                    !- Field 22

Schedule:Compact,
    SCH_24H,                 !- Name
    Fraction,                !- Schedule Type Limits Name
    Through: 12/31,          !- Field 1
    For: Weekdays SummerDesignDay,  !- Field 2
    Until: 24:00,            !- Field 3
    1,                       !- Field 4
    For: Saturday WinterDesignDay,  !- Field 5
    Until: 24:00,            !- Field 6
    1,                       !- Field 7
    For: Sunday Holidays AllOtherDays,  !- Field 8
    Until: 24:00,            !- Field 9
    1;                       !- Field 10

Schedule:Compact,
    ACTIVITY_SCH,            !- Name
    Any Number,              !- Schedule Type Limits Name
    Through: 12/31,          !- Field 1
    For: AllDays,            !- Field 2
    Until: 24:00,            !- Field 3
    120.;                    !- Field 4

Schedule:Compact,
    ALWAYS ON,               !- Name
    On/Off,                  !- Schedule Type Limits Name
    Through: 12/31,          !- Field 1
    For: AllDays,            !- Field 2
    Until: 24:00,            !- Field 3
    1;                       !- Field 4


!-   ===========  ALL OBJECTS IN CLASS: MATERIAL ===========

Material,
    RevestExt,               !- Name
    Rough,                   !- Roughness
    0.025,                   !- Thickness {m}
    1.15,                    !- Conductivity {W/m-K}
    2000.0,                  !- Density {kg/m3}
    1000.0,                  !- Specific Heat {J/kg-K}
    0.9,                     !- Thermal Absorptance
    0.5,                     !- Solar Absorptance
    0.5;                     !- Visible Absorptance

Material,
    RevestInt,               !- Name
    Rough,                   !- Roughness
    0.025,                   !- Thickness {m}
    1.15,                    !- Conductivity {W/m-K}
    2000.0,                  !- Density {kg/m3}
    1000.0,                  !- Specific Heat {J/kg-K}
    0.9,                     !- Thermal Absorptance
    0.4,                     !- Solar Absorptance
    0.4;                     !- Visible Absorptance

Material,
    Tij8Furos2.24,           !- Name
    Rough,                   !- Roughness
    0.033,                   !- Thickness {m}
    0.9,                     !- Conductivity {W/m-K}
    1103.0,                  !- Density {kg/m3}
    920.0,                   !- Specific Heat {J/kg-K}
    0.9,                     !- Thermal Absorptance
    0.7,                     !- Solar Absorptance
    0.7;                     !- Visible Absorptance

Material,
    EPS1mm,                  !- Name
    MediumRough,             !- Roughness
    0.001,                   !- Thickness {m}
    0.035,                   !- Conductivity {W/m-K}
    30.0,                    !- Density {kg/m3}
    1400.0,                  !- Specific Heat {J/kg-K}
    0.9,                     !- Thermal Absorptance
    0.8,                     !- Solar Absorptance
    0.8;                     !- Visible Absorptance

Material,
    EPS3mm,                  !- Name
    MediumRough,             !- Roughness
    0.003,                   !- Thickness {m}
    0.035,                   !- Conductivity {W/m-K}
    30.0,                    !- Density {kg/m3}
    1400.0,                  !- Specific Heat {J/kg-K}
    0.9,                     !- Thermal Absorptance
    0.8,                     !- Solar Absorptance
    0.8;                     !- Visible Absorptance

Material,
    EPS1cm,                  !- Name
    MediumRough,             !- Roughness
    0.01,                    !- Thickness {m}
    0.035,                   !- Conductivity {W/m-K}
    30.0,                    !- Density {kg/m3}
    1400.0,                  !- Specific Heat {J/kg-K}
    0.9,                     !- Thermal Absorptance
    0.8,                     !- Solar Absorptance
    0.8;                     !- Visible Absorptance

Material,
    EPS1.5cm,                !- Name
    MediumRough,             !- Roughness
    0.015,                   !- Thickness {m}
    0.035,                   !- Conductivity {W/m-K}
    30.0,                    !- Density {kg/m3}
    1400.0,                  !- Specific Heat {J/kg-K}
    0.9,                     !- Thermal Absorptance
    0.8,                     !- Solar Absorptance
    0.8;                     !- Visible Absorptance

Material,
    EPS2cm,                  !- Name
    MediumRough,             !- Roughness
    0.02,                    !- Thickness {m}
    0.035,                   !- Conductivity {W/m-K}
    30.0,                    !- Density {kg/m3}
    1400.0,                  !- Specific Heat {J/kg-K}
    0.9,                     !- Thermal Absorptance
    0.8,                     !- Solar Absorptance
    0.8;                     !- Visible Absorptance

Material,
    EPS2.5cm,                !- Name
    MediumRough,             !- Roughness
    0.025,                   !- Thickness {m}
    0.035,                   !- Conductivity {W/m-K}
    30.0,                    !- Density {kg/m3}
    1400.0,                  !- Specific Heat {J/kg-K}
    0.9,                     !- Thermal Absorptance
    0.8,                     !- Solar Absorptance
    0.8;                     !- Visible Absorptance

Material,
    EPS4cm,                  !- Name
    MediumRough,             !- Roughness
    0.04,                    !- Thickness {m}
    0.035,                   !- Conductivity {W/m-K}
    30.0,                    !- Density {kg/m3}
    1400.0,                  !- Specific Heat {J/kg-K}
    0.9,                     !- Thermal Absorptance
    0.8,                     !- Solar Absorptance
    0.8;                     !- Visible Absorptance

Material,
    EPS6cm,                  !- Name
    MediumRough,             !- Roughness
    0.06,                    !- Thickness {m}
    0.035,                   !- Conductivity {W/m-K}
    30.0,                    !- Density {kg/m3}
    1400.0,                  !- Specific Heat {J/kg-K}
    0.9,                     !- Thermal Absorptance
    0.8,                     !- Solar Absorptance
    0.8;                     !- Visible Absorptance

Material,
    TijMacicoExt10cm,        !- Name
    MediumSmooth,            !- Roughness
    0.1,                     !- Thickness {m}
    0.9,                     !- Conductivity {W/m-K}
    1600.0,                  !- Density {kg/m3}
    920.0,                   !- Specific Heat {J/kg-K}
    0.9,                     !- Thermal Absorptance
    0.6,                     !- Solar Absorptance
    0.6;                     !- Visible Absorptance

Material,
    TijMacicoInt,            !- Name
    MediumSmooth,            !- Roughness
    0.1,                     !- Thickness {m}
    0.9,                     !- Conductivity {W/m-K}
    1600.0,                  !- Density {kg/m3}
    920.0,                   !- Specific Heat {J/kg-K}
    0.9,                     !- Thermal Absorptance
    0.3,                     !- Solar Absorptance
    0.3;                     !- Visible Absorptance

Material,
    ConcParExt10cm,          !- Name
    Rough,                   !- Roughness
    0.1,                     !- Thickness {m}
    1.75,                    !- Conductivity {W/m-K}
    2500.0,                  !- Density {kg/m3}
    1000.0,                  !- Specific Heat {J/kg-K}
    0.9,                     !- Thermal Absorptance
    0.6,                     !- Solar Absorptance
    0.6;                     !- Visible Absorptance

Material,
    ConcParInt10cm,          !- Name
    Rough,                   !- Roughness
    0.1,                     !- Thickness {m}
    1.75,                    !- Conductivity {W/m-K}
    2500.0,                  !- Density {kg/m3}
    1000.0,                  !- Specific Heat {J/kg-K}
    0.9,                     !- Thermal Absorptance
    0.3,                     !- Solar Absorptance
    0.3;                     !- Visible Absorptance

Material,
    FibroParExt,             !- Name
    Smooth,                  !- Roughness
    0.012,                   !- Thickness {m}
    0.95,                    !- Conductivity {W/m-K}
    1900.0,                  !- Density {kg/m3}
    840.0,                   !- Specific Heat {J/kg-K}
    0.9,                     !- Thermal Absorptance
    0.5,                     !- Solar Absorptance
    0.5;                     !- Visible Absorptance

Material,
    GessoParInt,             !- Name
    MediumSmooth,            !- Roughness
    0.0125,                  !- Thickness {m}
    0.35,                    !- Conductivity {W/m-K}
    750.0,                   !- Density {kg/m3}
    840.0,                   !- Specific Heat {J/kg-K}
    0.9,                     !- Thermal Absorptance
    0.3,                     !- Solar Absorptance
    0.3;                     !- Visible Absorptance

Material,
    LaVidro8cm,              !- Name
    MediumRough,             !- Roughness
    0.08,                    !- Thickness {m}
    0.045,                   !- Conductivity {W/m-K}
    50.0,                    !- Density {kg/m3}
    700.0,                   !- Specific Heat {J/kg-K}
    0.9,                     !- Thermal Absorptance
    0.8,                     !- Solar Absorptance
    0.8;                     !- Visible Absorptance

Material,
    LaVidro3.4cm,            !- Name
    MediumRough,             !- Roughness
    0.034,                   !- Thickness {m}
    0.045,                   !- Conductivity {W/m-K}
    50.0,                    !- Density {kg/m3}
    700.0,                   !- Specific Heat {J/kg-K}
    0.9,                     !- Thermal Absorptance
    0.8,                     !- Solar Absorptance
    0.8;                     !- Visible Absorptance

Material,
    LaVidro2cm,              !- Name
    MediumRough,             !- Roughness
    0.02,                    !- Thickness {m}
    0.045,                   !- Conductivity {W/m-K}
    50.0,                    !- Density {kg/m3}
    700.0,                   !- Specific Heat {J/kg-K}
    0.9,                     !- Thermal Absorptance
    0.8,                     !- Solar Absorptance
    0.8;                     !- Visible Absorptance

Material,
    LaVidro1cm,              !- Name
    MediumRough,             !- Roughness
    0.0102,                  !- Thickness {m}
    0.045,                   !- Conductivity {W/m-K}
    50.0,                    !- Density {kg/m3}
    700.0,                   !- Specific Heat {J/kg-K}
    0.9,                     !- Thermal Absorptance
    0.8,                     !- Solar Absorptance
    0.8;                     !- Visible Absorptance

Material,
    LaVidro2.5mm,            !- Name
    MediumRough,             !- Roughness
    0.0025,                  !- Thickness {m}
    0.045,                   !- Conductivity {W/m-K}
    50.0,                    !- Density {kg/m3}
    700.0,                   !- Specific Heat {J/kg-K}
    0.9,                     !- Thermal Absorptance
    0.8,                     !- Solar Absorptance
    0.8;                     !- Visible Absorptance

Material,
    LaVidro5mm,              !- Name
    MediumRough,             !- Roughness
    0.005,                   !- Thickness {m}
    0.045,                   !- Conductivity {W/m-K}
    50.0,                    !- Density {kg/m3}
    700.0,                   !- Specific Heat {J/kg-K}
    0.9,                     !- Thermal Absorptance
    0.8,                     !- Solar Absorptance
    0.8;                     !- Visible Absorptance

Material,
    RevestCob,               !- Name
    Rough,                   !- Roughness
    0.025,                   !- Thickness {m}
    1.15,                    !- Conductivity {W/m-K}
    2000.0,                  !- Density {kg/m3}
    1000.0,                  !- Specific Heat {J/kg-K}
    0.9,                     !- Thermal Absorptance
    0.3,                     !- Solar Absorptance
    0.3;                     !- Visible Absorptance

Material,
    RevestCob1cm,            !- Name
    Rough,                   !- Roughness
    0.01,                    !- Thickness {m}
    1.15,                    !- Conductivity {W/m-K}
    2500.0,                  !- Density {kg/m3}
    1000.0,                  !- Specific Heat {J/kg-K}
    0.9,                     !- Thermal Absorptance
    0.5,                     !- Solar Absorptance
    0.5;                     !- Visible Absorptance

Material,
    RevestCob4cm,            !- Name
    Rough,                   !- Roughness
    0.04,                    !- Thickness {m}
    1.15,                    !- Conductivity {W/m-K}
    2500.0,                  !- Density {kg/m3}
    1000.0,                  !- Specific Heat {J/kg-K}
    0.9,                     !- Thermal Absorptance
    0.3,                     !- Solar Absorptance
    0.3;                     !- Visible Absorptance

Material,
    ConcCob10cm,             !- Name
    Rough,                   !- Roughness
    0.1,                     !- Thickness {m}
    1.75,                    !- Conductivity {W/m-K}
    2500.0,                  !- Density {kg/m3}
    1000.0,                  !- Specific Heat {J/kg-K}
    0.9,                     !- Thermal Absorptance
    0.5,                     !- Solar Absorptance
    0.5;                     !- Visible Absorptance

Material,
    LajeConcCob10cm,         !- Name
    Rough,                   !- Roughness
    0.1,                     !- Thickness {m}
    1.75,                    !- Conductivity {W/m-K}
    2500.0,                  !- Density {kg/m3}
    1000.0,                  !- Specific Heat {J/kg-K}
    0.9,                     !- Thermal Absorptance
    0.4,                     !- Solar Absorptance
    0.4;                     !- Visible Absorptance

Material,
    LajeMista12cm,           !- Name
    Rough,                   !- Roughness
    0.095,                   !- Thickness {m}
    1.05,                    !- Conductivity {W/m-K}
    1087.0,                  !- Density {kg/m3}
    920.0,                   !- Specific Heat {J/kg-K}
    0.9,                     !- Thermal Absorptance
    0.8,                     !- Solar Absorptance
    0.8;                     !- Visible Absorptance

Material,
    TelhaFC,                 !- Name
    Rough,                   !- Roughness
    0.008,                   !- Thickness {m}
    0.95,                    !- Conductivity {W/m-K}
    1900.0,                  !- Density {kg/m3}
    840.0,                   !- Specific Heat {J/kg-K}
    0.9,                     !- Thermal Absorptance
    0.5,                     !- Solar Absorptance
    0.5;                     !- Visible Absorptance

Material,
    ForMad8mm,               !- Name
    Rough,                   !- Roughness
    0.008,                   !- Thickness {m}
    0.15,                    !- Conductivity {W/m-K}
    650.0,                   !- Density {kg/m3}
    2300.0,                  !- Specific Heat {J/kg-K}
    0.9,                     !- Thermal Absorptance
    0.4,                     !- Solar Absorptance
    0.4;                     !- Visible Absorptance

Material,
    ForMadPinus8mm,          !- Name
    Rough,                   !- Roughness
    0.008,                   !- Thickness {m}
    0.23,                    !- Conductivity {W/m-K}
    650.0,                   !- Density {kg/m3}
    1340.0,                  !- Specific Heat {J/kg-K}
    0.9,                     !- Thermal Absorptance
    0.4,                     !- Solar Absorptance
    0.4;                     !- Visible Absorptance

Material,
    EPS1.6mm,                !- Name
    MediumRough,             !- Roughness
    0.0016,                  !- Thickness {m}
    0.035,                   !- Conductivity {W/m-K}
    30.0,                    !- Density {kg/m3}
    1400.0,                  !- Specific Heat {J/kg-K}
    0.9,                     !- Thermal Absorptance
    0.8,                     !- Solar Absorptance
    0.8;                     !- Visible Absorptance

Material,
    EPS2.3mm,                !- Name
    MediumRough,             !- Roughness
    0.0023,                  !- Thickness {m}
    0.035,                   !- Conductivity {W/m-K}
    30.0,                    !- Density {kg/m3}
    1400.0,                  !- Specific Heat {J/kg-K}
    0.9,                     !- Thermal Absorptance
    0.8,                     !- Solar Absorptance
    0.8;                     !- Visible Absorptance

Material,
    EPS4mm,                  !- Name
    MediumRough,             !- Roughness
    0.004,                   !- Thickness {m}
    0.035,                   !- Conductivity {W/m-K}
    30.0,                    !- Density {kg/m3}
    1400.0,                  !- Specific Heat {J/kg-K}
    0.9,                     !- Thermal Absorptance
    0.8,                     !- Solar Absorptance
    0.8;                     !- Visible Absorptance

Material,
    EPS5mm,                  !- Name
    MediumRough,             !- Roughness
    0.005,                   !- Thickness {m}
    0.035,                   !- Conductivity {W/m-K}
    30.0,                    !- Density {kg/m3}
    1400.0,                  !- Specific Heat {J/kg-K}
    0.9,                     !- Thermal Absorptance
    0.8,                     !- Solar Absorptance
    0.8;                     !- Visible Absorptance

Material,
    EPS7mm,                  !- Name
    MediumRough,             !- Roughness
    0.007,                   !- Thickness {m}
    0.035,                   !- Conductivity {W/m-K}
    30.0,                    !- Density {kg/m3}
    1400.0,                  !- Specific Heat {J/kg-K}
    0.9,                     !- Thermal Absorptance
    0.8,                     !- Solar Absorptance
    0.8;                     !- Visible Absorptance

Material,
    EPS13mm,                 !- Name
    MediumRough,             !- Roughness
    0.013,                   !- Thickness {m}
    0.035,                   !- Conductivity {W/m-K}
    30.0,                    !- Density {kg/m3}
    1400.0,                  !- Specific Heat {J/kg-K}
    0.9,                     !- Thermal Absorptance
    0.8,                     !- Solar Absorptance
    0.8;                     !- Visible Absorptance

Material,
    EPS17mm,                 !- Name
    MediumRough,             !- Roughness
    0.017,                   !- Thickness {m}
    0.035,                   !- Conductivity {W/m-K}
    30.0,                    !- Density {kg/m3}
    1400.0,                  !- Specific Heat {J/kg-K}
    0.9,                     !- Thermal Absorptance
    0.8,                     !- Solar Absorptance
    0.8;                     !- Visible Absorptance

Material,
    EPS20mm,                 !- Name
    MediumRough,             !- Roughness
    0.02,                    !- Thickness {m}